* PSpice Model Editor - Version 17.2.0
*$
*BeginSpec
*IF: (1.5940,10.210E-3) (1.6299,12.102E-3) (1.6657,13.783E-3) (1.7075,15.814E-3) (1.7493,17.846E-3) (1.7881,19.527E-3) (1.8179,21.278E-3) (1.8597,22.960E-3) (1.8985,24.571E-3)
*IF: (1.9284,25.972E-3) (1.9642,27.513E-3) (1.9970,29.124E-3)
*JC:
*RL:
*RB: Vz=0 Iz=0 Zz=0
*RR: Trr=0 Ifwd=10.000E-3 Irev=10.000E-3 Rl=100
*EndSpec
*BeginTrace
*IF: 1,0,.4,1.9970,1,3,0,0,-1 (27)
*JC: 0,1,.1,10,1,3,0,0,-1 (27)
*RL: 0,0,1,100,1,3,0,0,-1 (27)
*RB: 0,1,100.00E-6,1,1,3,0,0,-1 (27)
*RR: 0,0,-5.0000E-9,20.000E-9,1,3,0,0,-1 (27)
*EndTrace
*BeginParam
*IS=10.000E-21 (10.000E-21,.1,0)
*N=1.2908 (.2,5,0)
*RS=19.674 (1.0000E-6,100,0)
*IKF=6.5002 (0,1.0000E3,0)
*XTI=3 (-100,100,0)
*EG=1.1100 (.1,5.5100,0)
*CJO=1.0000E-12 (10.000E-21,1.0000E-3,0)
*M=.3333 (.1,10,0)
*VJ=.75 (.3905,10,0)
*FC=.5 (1.0000E-3,10,0)
*ISR=100.00E-12 (10.000E-21,.1,0)
*NR=2 (.5,5,0)
*BV=100 (.1,1.0000E6,0)
*IBV=100.00E-6 (1.0000E-9,10,0)
*TT=5.0000E-9 (100.00E-18,1.0000E-3,0)
*EndParam
*DEVICE=YellowLED,D
* YellowLED D model
* created using Model Editor release 17.2.0 on 05/13/24 at 18:50
* The Model Editor is a PSpice product.
.MODEL YellowLED D
+ IS=10.000E-21
+ N=1.2908
+ RS=19.674
*$
